
---------- Begin Simulation Statistics ----------
sim_seconds                                  1.114450                       # Number of seconds simulated
sim_ticks                                1114449525000                       # Number of ticks simulated
final_tick                               1114449525000                       # Number of ticks from beginning of simulation (restored from checkpoints and never reset)
sim_freq                                 1000000000000                       # Frequency of simulated ticks
host_inst_rate                                 252395                       # Simulator instruction rate (inst/s)
host_op_rate                                   409292                       # Simulator op (including micro ops) rate (op/s)
host_tick_rate                              558000209                       # Simulator tick rate (ticks/s)
host_mem_usage                                 663700                       # Number of bytes of host memory used
host_seconds                                  1997.22                       # Real time elapsed on the host
sim_insts                                   504088750                       # Number of instructions simulated
sim_ops                                     817446053                       # Number of ops (including micro ops) simulated
system.voltage_domain.voltage                       1                       # Voltage in Volts
system.clk_domain.clock                          1000                       # Clock period in ticks
system.mem_ctrls.pwrStateResidencyTicks::UNDEFINED 1114449525000                       # Cumulative time (in ticks) in various power states
system.mem_ctrls.bytes_read::cpu.inst           22592                       # Number of bytes read from this memory
system.mem_ctrls.bytes_read::cpu.data        19008320                       # Number of bytes read from this memory
system.mem_ctrls.bytes_read::total           19030912                       # Number of bytes read from this memory
system.mem_ctrls.bytes_inst_read::cpu.inst        22592                       # Number of instructions bytes read from this memory
system.mem_ctrls.bytes_inst_read::total         22592                       # Number of instructions bytes read from this memory
system.mem_ctrls.bytes_written::writebacks     17565696                       # Number of bytes written to this memory
system.mem_ctrls.bytes_written::total        17565696                       # Number of bytes written to this memory
system.mem_ctrls.num_reads::cpu.inst              353                       # Number of read requests responded to by this memory
system.mem_ctrls.num_reads::cpu.data           297005                       # Number of read requests responded to by this memory
system.mem_ctrls.num_reads::total              297358                       # Number of read requests responded to by this memory
system.mem_ctrls.num_writes::writebacks        274464                       # Number of write requests responded to by this memory
system.mem_ctrls.num_writes::total             274464                       # Number of write requests responded to by this memory
system.mem_ctrls.bw_read::cpu.inst              20272                       # Total read bandwidth from this memory (bytes/s)
system.mem_ctrls.bw_read::cpu.data           17056241                       # Total read bandwidth from this memory (bytes/s)
system.mem_ctrls.bw_read::total              17076513                       # Total read bandwidth from this memory (bytes/s)
system.mem_ctrls.bw_inst_read::cpu.inst         20272                       # Instruction read bandwidth from this memory (bytes/s)
system.mem_ctrls.bw_inst_read::total            20272                       # Instruction read bandwidth from this memory (bytes/s)
system.mem_ctrls.bw_write::writebacks        15761769                       # Write bandwidth from this memory (bytes/s)
system.mem_ctrls.bw_write::total             15761769                       # Write bandwidth from this memory (bytes/s)
system.mem_ctrls.bw_total::writebacks        15761769                       # Total bandwidth to/from this memory (bytes/s)
system.mem_ctrls.bw_total::cpu.inst             20272                       # Total bandwidth to/from this memory (bytes/s)
system.mem_ctrls.bw_total::cpu.data          17056241                       # Total bandwidth to/from this memory (bytes/s)
system.mem_ctrls.bw_total::total             32838282                       # Total bandwidth to/from this memory (bytes/s)
system.pwrStateResidencyTicks::UNDEFINED 1114449525000                       # Cumulative time (in ticks) in various power states
system.cpu_voltage_domain.voltage                   1                       # Voltage in Volts
system.cpu_clk_domain.clock                       500                       # Clock period in ticks
system.cpu.dtb.walker.pwrStateResidencyTicks::UNDEFINED 1114449525000                       # Cumulative time (in ticks) in various power states
system.cpu.dtb.rdAccesses                   238245977                       # TLB accesses on read requests
system.cpu.dtb.wrAccesses                    64374646                       # TLB accesses on write requests
system.cpu.dtb.rdMisses                          5921                       # TLB misses on read requests
system.cpu.dtb.wrMisses                           999                       # TLB misses on write requests
system.cpu.apic_clk_domain.clock                 8000                       # Clock period in ticks
system.cpu.interrupts.pwrStateResidencyTicks::UNDEFINED 1114449525000                       # Cumulative time (in ticks) in various power states
system.cpu.itb.walker.pwrStateResidencyTicks::UNDEFINED 1114449525000                       # Cumulative time (in ticks) in various power states
system.cpu.itb.rdAccesses                           0                       # TLB accesses on read requests
system.cpu.itb.wrAccesses                   677335179                       # TLB accesses on write requests
system.cpu.itb.rdMisses                             0                       # TLB misses on read requests
system.cpu.itb.wrMisses                            36                       # TLB misses on write requests
system.cpu.workload.numSyscalls                     9                       # Number of system calls
system.cpu.pwrStateResidencyTicks::ON    1114449525000                       # Cumulative time (in ticks) in various power states
system.cpu.numCycles                       2228899050                       # number of cpu cycles simulated
system.cpu.numWorkItemsStarted                      0                       # number of work items this cpu started
system.cpu.numWorkItemsCompleted                    0                       # number of work items this cpu completed
system.cpu.committedInsts                   504088750                       # Number of instructions committed
system.cpu.committedOps                     817446053                       # Number of ops (including micro ops) committed
system.cpu.num_int_alu_accesses             812629936                       # Number of integer alu accesses
system.cpu.num_fp_alu_accesses                   1943                       # Number of float alu accesses
system.cpu.num_vec_alu_accesses                     0                       # Number of vector alu accesses
system.cpu.num_func_calls                     9452832                       # number of times a function call or return occured
system.cpu.num_conditional_control_insts     46565886                       # number of instructions that are conditional controls
system.cpu.num_int_insts                    812629936                       # number of integer instructions
system.cpu.num_fp_insts                          1943                       # number of float instructions
system.cpu.num_vec_insts                            0                       # number of vector instructions
system.cpu.num_int_register_reads          1822855475                       # number of times the integer registers were read
system.cpu.num_int_register_writes          705741269                       # number of times the integer registers were written
system.cpu.num_fp_register_reads                 3767                       # number of times the floating registers were read
system.cpu.num_fp_register_writes                1480                       # number of times the floating registers were written
system.cpu.num_vec_register_reads                   0                       # number of times the vector registers were read
system.cpu.num_vec_register_writes                  0                       # number of times the vector registers were written
system.cpu.num_cc_register_reads            297557700                       # number of times the CC registers were read
system.cpu.num_cc_register_writes           279904573                       # number of times the CC registers were written
system.cpu.num_mem_refs                     302620620                       # number of memory refs
system.cpu.num_load_insts                   238245974                       # Number of load instructions
system.cpu.num_store_insts                   64374646                       # Number of store instructions
system.cpu.num_idle_cycles                          0                       # Number of idle cycles
system.cpu.num_busy_cycles                 2228899050                       # Number of busy cycles
system.cpu.not_idle_fraction                        1                       # Percentage of non-idle cycles
system.cpu.idle_fraction                            0                       # Percentage of idle cycles
system.cpu.Branches                          60772142                       # Number of branches fetched
system.cpu.op_class::No_OpClass               1362107      0.17%      0.17% # Class of executed instruction
system.cpu.op_class::IntAlu                 505014316     61.78%     61.95% # Class of executed instruction
system.cpu.op_class::IntMult                        4      0.00%     61.95% # Class of executed instruction
system.cpu.op_class::IntDiv                   8448046      1.03%     62.98% # Class of executed instruction
system.cpu.op_class::FloatAdd                      10      0.00%     62.98% # Class of executed instruction
system.cpu.op_class::FloatCmp                       0      0.00%     62.98% # Class of executed instruction
system.cpu.op_class::FloatCvt                       0      0.00%     62.98% # Class of executed instruction
system.cpu.op_class::FloatMult                      0      0.00%     62.98% # Class of executed instruction
system.cpu.op_class::FloatMultAcc                   0      0.00%     62.98% # Class of executed instruction
system.cpu.op_class::FloatDiv                       0      0.00%     62.98% # Class of executed instruction
system.cpu.op_class::FloatMisc                      0      0.00%     62.98% # Class of executed instruction
system.cpu.op_class::FloatSqrt                      0      0.00%     62.98% # Class of executed instruction
system.cpu.op_class::SimdAdd                      374      0.00%     62.98% # Class of executed instruction
system.cpu.op_class::SimdAddAcc                     0      0.00%     62.98% # Class of executed instruction
system.cpu.op_class::SimdAlu                       68      0.00%     62.98% # Class of executed instruction
system.cpu.op_class::SimdCmp                        0      0.00%     62.98% # Class of executed instruction
system.cpu.op_class::SimdCvt                      108      0.00%     62.98% # Class of executed instruction
system.cpu.op_class::SimdMisc                     214      0.00%     62.98% # Class of executed instruction
system.cpu.op_class::SimdMult                       0      0.00%     62.98% # Class of executed instruction
system.cpu.op_class::SimdMultAcc                    0      0.00%     62.98% # Class of executed instruction
system.cpu.op_class::SimdShift                    186      0.00%     62.98% # Class of executed instruction
system.cpu.op_class::SimdShiftAcc                   0      0.00%     62.98% # Class of executed instruction
system.cpu.op_class::SimdSqrt                       0      0.00%     62.98% # Class of executed instruction
system.cpu.op_class::SimdFloatAdd                   0      0.00%     62.98% # Class of executed instruction
system.cpu.op_class::SimdFloatAlu                   0      0.00%     62.98% # Class of executed instruction
system.cpu.op_class::SimdFloatCmp                   0      0.00%     62.98% # Class of executed instruction
system.cpu.op_class::SimdFloatCvt                   0      0.00%     62.98% # Class of executed instruction
system.cpu.op_class::SimdFloatDiv                   0      0.00%     62.98% # Class of executed instruction
system.cpu.op_class::SimdFloatMisc                  0      0.00%     62.98% # Class of executed instruction
system.cpu.op_class::SimdFloatMult                  0      0.00%     62.98% # Class of executed instruction
system.cpu.op_class::SimdFloatMultAcc               0      0.00%     62.98% # Class of executed instruction
system.cpu.op_class::SimdFloatSqrt                  0      0.00%     62.98% # Class of executed instruction
system.cpu.op_class::MemRead                238245918     29.15%     92.12% # Class of executed instruction
system.cpu.op_class::MemWrite                64374231      7.88%    100.00% # Class of executed instruction
system.cpu.op_class::FloatMemRead                  56      0.00%    100.00% # Class of executed instruction
system.cpu.op_class::FloatMemWrite                415      0.00%    100.00% # Class of executed instruction
system.cpu.op_class::IprAccess                      0      0.00%    100.00% # Class of executed instruction
system.cpu.op_class::InstPrefetch                   0      0.00%    100.00% # Class of executed instruction
system.cpu.op_class::total                  817446053                       # Class of executed instruction
system.cpu.dcache.tags.pwrStateResidencyTicks::UNDEFINED 1114449525000                       # Cumulative time (in ticks) in various power states
system.cpu.dcache.tags.tagsinuse           511.824700                       # Cycle average of tags in use
system.cpu.dcache.tags.total_refs           302620623                       # Total number of references to valid blocks.
system.cpu.dcache.tags.sampled_refs            682342                       # Sample count of references to valid blocks.
system.cpu.dcache.tags.avg_refs            443.502852                       # Average number of references to valid blocks.
system.cpu.dcache.tags.warmup_cycle            765000                       # Cycle when the warmup percentage was hit.
system.cpu.dcache.tags.occ_blocks::cpu.data   511.824700                       # Average occupied blocks per requestor
system.cpu.dcache.tags.occ_percent::cpu.data     0.999658                       # Average percentage of cache occupancy
system.cpu.dcache.tags.occ_percent::total     0.999658                       # Average percentage of cache occupancy
system.cpu.dcache.tags.occ_task_id_blocks::1024          512                       # Occupied blocks per task id
system.cpu.dcache.tags.age_task_id_blocks_1024::0           11                       # Occupied blocks per task id
system.cpu.dcache.tags.age_task_id_blocks_1024::1           19                       # Occupied blocks per task id
system.cpu.dcache.tags.age_task_id_blocks_1024::2           52                       # Occupied blocks per task id
system.cpu.dcache.tags.age_task_id_blocks_1024::3          423                       # Occupied blocks per task id
system.cpu.dcache.tags.age_task_id_blocks_1024::4            7                       # Occupied blocks per task id
system.cpu.dcache.tags.occ_task_id_percent::1024            1                       # Percentage of cache occupancy per task id
system.cpu.dcache.tags.tag_accesses         605923588                       # Number of tag accesses
system.cpu.dcache.tags.data_accesses        605923588                       # Number of data accesses
system.cpu.dcache.pwrStateResidencyTicks::UNDEFINED 1114449525000                       # Cumulative time (in ticks) in various power states
system.cpu.dcache.ReadReq_hits::cpu.data    237630078                       # number of ReadReq hits
system.cpu.dcache.ReadReq_hits::total       237630078                       # number of ReadReq hits
system.cpu.dcache.WriteReq_hits::cpu.data     64105088                       # number of WriteReq hits
system.cpu.dcache.WriteReq_hits::total       64105088                       # number of WriteReq hits
system.cpu.dcache.demand_hits::cpu.data     301735166                       # number of demand (read+write) hits
system.cpu.dcache.demand_hits::total        301735166                       # number of demand (read+write) hits
system.cpu.dcache.overall_hits::cpu.data    301735166                       # number of overall hits
system.cpu.dcache.overall_hits::total       301735166                       # number of overall hits
system.cpu.dcache.ReadReq_misses::cpu.data       615899                       # number of ReadReq misses
system.cpu.dcache.ReadReq_misses::total        615899                       # number of ReadReq misses
system.cpu.dcache.WriteReq_misses::cpu.data       269558                       # number of WriteReq misses
system.cpu.dcache.WriteReq_misses::total       269558                       # number of WriteReq misses
system.cpu.dcache.demand_misses::cpu.data       885457                       # number of demand (read+write) misses
system.cpu.dcache.demand_misses::total         885457                       # number of demand (read+write) misses
system.cpu.dcache.overall_misses::cpu.data       885457                       # number of overall misses
system.cpu.dcache.overall_misses::total        885457                       # number of overall misses
system.cpu.dcache.ReadReq_miss_latency::cpu.data 112720570000                       # number of ReadReq miss cycles
system.cpu.dcache.ReadReq_miss_latency::total 112720570000                       # number of ReadReq miss cycles
system.cpu.dcache.WriteReq_miss_latency::cpu.data  22595573000                       # number of WriteReq miss cycles
system.cpu.dcache.WriteReq_miss_latency::total  22595573000                       # number of WriteReq miss cycles
system.cpu.dcache.demand_miss_latency::cpu.data 135316143000                       # number of demand (read+write) miss cycles
system.cpu.dcache.demand_miss_latency::total 135316143000                       # number of demand (read+write) miss cycles
system.cpu.dcache.overall_miss_latency::cpu.data 135316143000                       # number of overall miss cycles
system.cpu.dcache.overall_miss_latency::total 135316143000                       # number of overall miss cycles
system.cpu.dcache.ReadReq_accesses::cpu.data    238245977                       # number of ReadReq accesses(hits+misses)
system.cpu.dcache.ReadReq_accesses::total    238245977                       # number of ReadReq accesses(hits+misses)
system.cpu.dcache.WriteReq_accesses::cpu.data     64374646                       # number of WriteReq accesses(hits+misses)
system.cpu.dcache.WriteReq_accesses::total     64374646                       # number of WriteReq accesses(hits+misses)
system.cpu.dcache.demand_accesses::cpu.data    302620623                       # number of demand (read+write) accesses
system.cpu.dcache.demand_accesses::total    302620623                       # number of demand (read+write) accesses
system.cpu.dcache.overall_accesses::cpu.data    302620623                       # number of overall (read+write) accesses
system.cpu.dcache.overall_accesses::total    302620623                       # number of overall (read+write) accesses
system.cpu.dcache.ReadReq_miss_rate::cpu.data     0.002585                       # miss rate for ReadReq accesses
system.cpu.dcache.ReadReq_miss_rate::total     0.002585                       # miss rate for ReadReq accesses
system.cpu.dcache.WriteReq_miss_rate::cpu.data     0.004187                       # miss rate for WriteReq accesses
system.cpu.dcache.WriteReq_miss_rate::total     0.004187                       # miss rate for WriteReq accesses
system.cpu.dcache.demand_miss_rate::cpu.data     0.002926                       # miss rate for demand accesses
system.cpu.dcache.demand_miss_rate::total     0.002926                       # miss rate for demand accesses
system.cpu.dcache.overall_miss_rate::cpu.data     0.002926                       # miss rate for overall accesses
system.cpu.dcache.overall_miss_rate::total     0.002926                       # miss rate for overall accesses
system.cpu.dcache.ReadReq_avg_miss_latency::cpu.data 183017.946124                       # average ReadReq miss latency
system.cpu.dcache.ReadReq_avg_miss_latency::total 183017.946124                       # average ReadReq miss latency
system.cpu.dcache.WriteReq_avg_miss_latency::cpu.data 83824.531270                       # average WriteReq miss latency
system.cpu.dcache.WriteReq_avg_miss_latency::total 83824.531270                       # average WriteReq miss latency
system.cpu.dcache.demand_avg_miss_latency::cpu.data 152820.682427                       # average overall miss latency
system.cpu.dcache.demand_avg_miss_latency::total 152820.682427                       # average overall miss latency
system.cpu.dcache.overall_avg_miss_latency::cpu.data 152820.682427                       # average overall miss latency
system.cpu.dcache.overall_avg_miss_latency::total 152820.682427                       # average overall miss latency
system.cpu.dcache.blocked_cycles::no_mshrs            0                       # number of cycles access was blocked
system.cpu.dcache.blocked_cycles::no_targets            0                       # number of cycles access was blocked
system.cpu.dcache.blocked::no_mshrs                 0                       # number of cycles access was blocked
system.cpu.dcache.blocked::no_targets               0                       # number of cycles access was blocked
system.cpu.dcache.avg_blocked_cycles::no_mshrs          nan                       # average number of cycles each access was blocked
system.cpu.dcache.avg_blocked_cycles::no_targets          nan                       # average number of cycles each access was blocked
system.cpu.dcache.writebacks::writebacks       657264                       # number of writebacks
system.cpu.dcache.writebacks::total            657264                       # number of writebacks
system.cpu.dcache.ReadReq_mshr_misses::cpu.data       615899                       # number of ReadReq MSHR misses
system.cpu.dcache.ReadReq_mshr_misses::total       615899                       # number of ReadReq MSHR misses
system.cpu.dcache.WriteReq_mshr_misses::cpu.data       269558                       # number of WriteReq MSHR misses
system.cpu.dcache.WriteReq_mshr_misses::total       269558                       # number of WriteReq MSHR misses
system.cpu.dcache.demand_mshr_misses::cpu.data       885457                       # number of demand (read+write) MSHR misses
system.cpu.dcache.demand_mshr_misses::total       885457                       # number of demand (read+write) MSHR misses
system.cpu.dcache.overall_mshr_misses::cpu.data       885457                       # number of overall MSHR misses
system.cpu.dcache.overall_mshr_misses::total       885457                       # number of overall MSHR misses
system.cpu.dcache.ReadReq_mshr_miss_latency::cpu.data 112104671000                       # number of ReadReq MSHR miss cycles
system.cpu.dcache.ReadReq_mshr_miss_latency::total 112104671000                       # number of ReadReq MSHR miss cycles
system.cpu.dcache.WriteReq_mshr_miss_latency::cpu.data  22326015000                       # number of WriteReq MSHR miss cycles
system.cpu.dcache.WriteReq_mshr_miss_latency::total  22326015000                       # number of WriteReq MSHR miss cycles
system.cpu.dcache.demand_mshr_miss_latency::cpu.data 134430686000                       # number of demand (read+write) MSHR miss cycles
system.cpu.dcache.demand_mshr_miss_latency::total 134430686000                       # number of demand (read+write) MSHR miss cycles
system.cpu.dcache.overall_mshr_miss_latency::cpu.data 134430686000                       # number of overall MSHR miss cycles
system.cpu.dcache.overall_mshr_miss_latency::total 134430686000                       # number of overall MSHR miss cycles
system.cpu.dcache.ReadReq_mshr_miss_rate::cpu.data     0.002585                       # mshr miss rate for ReadReq accesses
system.cpu.dcache.ReadReq_mshr_miss_rate::total     0.002585                       # mshr miss rate for ReadReq accesses
system.cpu.dcache.WriteReq_mshr_miss_rate::cpu.data     0.004187                       # mshr miss rate for WriteReq accesses
system.cpu.dcache.WriteReq_mshr_miss_rate::total     0.004187                       # mshr miss rate for WriteReq accesses
system.cpu.dcache.demand_mshr_miss_rate::cpu.data     0.002926                       # mshr miss rate for demand accesses
system.cpu.dcache.demand_mshr_miss_rate::total     0.002926                       # mshr miss rate for demand accesses
system.cpu.dcache.overall_mshr_miss_rate::cpu.data     0.002926                       # mshr miss rate for overall accesses
system.cpu.dcache.overall_mshr_miss_rate::total     0.002926                       # mshr miss rate for overall accesses
system.cpu.dcache.ReadReq_avg_mshr_miss_latency::cpu.data 182017.946124                       # average ReadReq mshr miss latency
system.cpu.dcache.ReadReq_avg_mshr_miss_latency::total 182017.946124                       # average ReadReq mshr miss latency
system.cpu.dcache.WriteReq_avg_mshr_miss_latency::cpu.data 82824.531270                       # average WriteReq mshr miss latency
system.cpu.dcache.WriteReq_avg_mshr_miss_latency::total 82824.531270                       # average WriteReq mshr miss latency
system.cpu.dcache.demand_avg_mshr_miss_latency::cpu.data 151820.682427                       # average overall mshr miss latency
system.cpu.dcache.demand_avg_mshr_miss_latency::total 151820.682427                       # average overall mshr miss latency
system.cpu.dcache.overall_avg_mshr_miss_latency::cpu.data 151820.682427                       # average overall mshr miss latency
system.cpu.dcache.overall_avg_mshr_miss_latency::total 151820.682427                       # average overall mshr miss latency
system.cpu.dcache.replacements                 681830                       # number of replacements
system.cpu.dtb_walker_cache.tags.pwrStateResidencyTicks::UNDEFINED 1114449525000                       # Cumulative time (in ticks) in various power states
system.cpu.dtb_walker_cache.tags.tagsinuse            0                       # Cycle average of tags in use
system.cpu.dtb_walker_cache.tags.total_refs            0                       # Total number of references to valid blocks.
system.cpu.dtb_walker_cache.tags.sampled_refs            0                       # Sample count of references to valid blocks.
system.cpu.dtb_walker_cache.tags.avg_refs          nan                       # Average number of references to valid blocks.
system.cpu.dtb_walker_cache.tags.warmup_cycle            0                       # Cycle when the warmup percentage was hit.
system.cpu.dtb_walker_cache.tags.tag_accesses            0                       # Number of tag accesses
system.cpu.dtb_walker_cache.tags.data_accesses            0                       # Number of data accesses
system.cpu.dtb_walker_cache.pwrStateResidencyTicks::UNDEFINED 1114449525000                       # Cumulative time (in ticks) in various power states
system.cpu.dtb_walker_cache.blocked_cycles::no_mshrs            0                       # number of cycles access was blocked
system.cpu.dtb_walker_cache.blocked_cycles::no_targets            0                       # number of cycles access was blocked
system.cpu.dtb_walker_cache.blocked::no_mshrs            0                       # number of cycles access was blocked
system.cpu.dtb_walker_cache.blocked::no_targets            0                       # number of cycles access was blocked
system.cpu.dtb_walker_cache.avg_blocked_cycles::no_mshrs          nan                       # average number of cycles each access was blocked
system.cpu.dtb_walker_cache.avg_blocked_cycles::no_targets          nan                       # average number of cycles each access was blocked
system.cpu.dtb_walker_cache.replacements            0                       # number of replacements
system.cpu.icache.tags.pwrStateResidencyTicks::UNDEFINED 1114449525000                       # Cumulative time (in ticks) in various power states
system.cpu.icache.tags.tagsinuse           279.479373                       # Cycle average of tags in use
system.cpu.icache.tags.total_refs           677335179                       # Total number of references to valid blocks.
system.cpu.icache.tags.sampled_refs               353                       # Sample count of references to valid blocks.
system.cpu.icache.tags.avg_refs          1918796.541076                       # Average number of references to valid blocks.
system.cpu.icache.tags.warmup_cycle            445000                       # Cycle when the warmup percentage was hit.
system.cpu.icache.tags.occ_blocks::cpu.inst   279.479373                       # Average occupied blocks per requestor
system.cpu.icache.tags.occ_percent::cpu.inst     0.545858                       # Average percentage of cache occupancy
system.cpu.icache.tags.occ_percent::total     0.545858                       # Average percentage of cache occupancy
system.cpu.icache.tags.occ_task_id_blocks::1024          308                       # Occupied blocks per task id
system.cpu.icache.tags.age_task_id_blocks_1024::0           21                       # Occupied blocks per task id
system.cpu.icache.tags.age_task_id_blocks_1024::1           17                       # Occupied blocks per task id
system.cpu.icache.tags.age_task_id_blocks_1024::4          270                       # Occupied blocks per task id
system.cpu.icache.tags.occ_task_id_percent::1024     0.601562                       # Percentage of cache occupancy per task id
system.cpu.icache.tags.tag_accesses        1354670711                       # Number of tag accesses
system.cpu.icache.tags.data_accesses       1354670711                       # Number of data accesses
system.cpu.icache.pwrStateResidencyTicks::UNDEFINED 1114449525000                       # Cumulative time (in ticks) in various power states
system.cpu.icache.ReadReq_hits::cpu.inst    677334826                       # number of ReadReq hits
system.cpu.icache.ReadReq_hits::total       677334826                       # number of ReadReq hits
system.cpu.icache.demand_hits::cpu.inst     677334826                       # number of demand (read+write) hits
system.cpu.icache.demand_hits::total        677334826                       # number of demand (read+write) hits
system.cpu.icache.overall_hits::cpu.inst    677334826                       # number of overall hits
system.cpu.icache.overall_hits::total       677334826                       # number of overall hits
system.cpu.icache.ReadReq_misses::cpu.inst          353                       # number of ReadReq misses
system.cpu.icache.ReadReq_misses::total           353                       # number of ReadReq misses
system.cpu.icache.demand_misses::cpu.inst          353                       # number of demand (read+write) misses
system.cpu.icache.demand_misses::total            353                       # number of demand (read+write) misses
system.cpu.icache.overall_misses::cpu.inst          353                       # number of overall misses
system.cpu.icache.overall_misses::total           353                       # number of overall misses
system.cpu.icache.ReadReq_miss_latency::cpu.inst     63393000                       # number of ReadReq miss cycles
system.cpu.icache.ReadReq_miss_latency::total     63393000                       # number of ReadReq miss cycles
system.cpu.icache.demand_miss_latency::cpu.inst     63393000                       # number of demand (read+write) miss cycles
system.cpu.icache.demand_miss_latency::total     63393000                       # number of demand (read+write) miss cycles
system.cpu.icache.overall_miss_latency::cpu.inst     63393000                       # number of overall miss cycles
system.cpu.icache.overall_miss_latency::total     63393000                       # number of overall miss cycles
system.cpu.icache.ReadReq_accesses::cpu.inst    677335179                       # number of ReadReq accesses(hits+misses)
system.cpu.icache.ReadReq_accesses::total    677335179                       # number of ReadReq accesses(hits+misses)
system.cpu.icache.demand_accesses::cpu.inst    677335179                       # number of demand (read+write) accesses
system.cpu.icache.demand_accesses::total    677335179                       # number of demand (read+write) accesses
system.cpu.icache.overall_accesses::cpu.inst    677335179                       # number of overall (read+write) accesses
system.cpu.icache.overall_accesses::total    677335179                       # number of overall (read+write) accesses
system.cpu.icache.ReadReq_miss_rate::cpu.inst     0.000001                       # miss rate for ReadReq accesses
system.cpu.icache.ReadReq_miss_rate::total     0.000001                       # miss rate for ReadReq accesses
system.cpu.icache.demand_miss_rate::cpu.inst     0.000001                       # miss rate for demand accesses
system.cpu.icache.demand_miss_rate::total     0.000001                       # miss rate for demand accesses
system.cpu.icache.overall_miss_rate::cpu.inst     0.000001                       # miss rate for overall accesses
system.cpu.icache.overall_miss_rate::total     0.000001                       # miss rate for overall accesses
system.cpu.icache.ReadReq_avg_miss_latency::cpu.inst 179583.569405                       # average ReadReq miss latency
system.cpu.icache.ReadReq_avg_miss_latency::total 179583.569405                       # average ReadReq miss latency
system.cpu.icache.demand_avg_miss_latency::cpu.inst 179583.569405                       # average overall miss latency
system.cpu.icache.demand_avg_miss_latency::total 179583.569405                       # average overall miss latency
system.cpu.icache.overall_avg_miss_latency::cpu.inst 179583.569405                       # average overall miss latency
system.cpu.icache.overall_avg_miss_latency::total 179583.569405                       # average overall miss latency
system.cpu.icache.blocked_cycles::no_mshrs            0                       # number of cycles access was blocked
system.cpu.icache.blocked_cycles::no_targets            0                       # number of cycles access was blocked
system.cpu.icache.blocked::no_mshrs                 0                       # number of cycles access was blocked
system.cpu.icache.blocked::no_targets               0                       # number of cycles access was blocked
system.cpu.icache.avg_blocked_cycles::no_mshrs          nan                       # average number of cycles each access was blocked
system.cpu.icache.avg_blocked_cycles::no_targets          nan                       # average number of cycles each access was blocked
system.cpu.icache.writebacks::writebacks           45                       # number of writebacks
system.cpu.icache.writebacks::total                45                       # number of writebacks
system.cpu.icache.ReadReq_mshr_misses::cpu.inst          353                       # number of ReadReq MSHR misses
system.cpu.icache.ReadReq_mshr_misses::total          353                       # number of ReadReq MSHR misses
system.cpu.icache.demand_mshr_misses::cpu.inst          353                       # number of demand (read+write) MSHR misses
system.cpu.icache.demand_mshr_misses::total          353                       # number of demand (read+write) MSHR misses
system.cpu.icache.overall_mshr_misses::cpu.inst          353                       # number of overall MSHR misses
system.cpu.icache.overall_mshr_misses::total          353                       # number of overall MSHR misses
system.cpu.icache.ReadReq_mshr_miss_latency::cpu.inst     63040000                       # number of ReadReq MSHR miss cycles
system.cpu.icache.ReadReq_mshr_miss_latency::total     63040000                       # number of ReadReq MSHR miss cycles
system.cpu.icache.demand_mshr_miss_latency::cpu.inst     63040000                       # number of demand (read+write) MSHR miss cycles
system.cpu.icache.demand_mshr_miss_latency::total     63040000                       # number of demand (read+write) MSHR miss cycles
system.cpu.icache.overall_mshr_miss_latency::cpu.inst     63040000                       # number of overall MSHR miss cycles
system.cpu.icache.overall_mshr_miss_latency::total     63040000                       # number of overall MSHR miss cycles
system.cpu.icache.ReadReq_mshr_miss_rate::cpu.inst     0.000001                       # mshr miss rate for ReadReq accesses
system.cpu.icache.ReadReq_mshr_miss_rate::total     0.000001                       # mshr miss rate for ReadReq accesses
system.cpu.icache.demand_mshr_miss_rate::cpu.inst     0.000001                       # mshr miss rate for demand accesses
system.cpu.icache.demand_mshr_miss_rate::total     0.000001                       # mshr miss rate for demand accesses
system.cpu.icache.overall_mshr_miss_rate::cpu.inst     0.000001                       # mshr miss rate for overall accesses
system.cpu.icache.overall_mshr_miss_rate::total     0.000001                       # mshr miss rate for overall accesses
system.cpu.icache.ReadReq_avg_mshr_miss_latency::cpu.inst 178583.569405                       # average ReadReq mshr miss latency
system.cpu.icache.ReadReq_avg_mshr_miss_latency::total 178583.569405                       # average ReadReq mshr miss latency
system.cpu.icache.demand_avg_mshr_miss_latency::cpu.inst 178583.569405                       # average overall mshr miss latency
system.cpu.icache.demand_avg_mshr_miss_latency::total 178583.569405                       # average overall mshr miss latency
system.cpu.icache.overall_avg_mshr_miss_latency::cpu.inst 178583.569405                       # average overall mshr miss latency
system.cpu.icache.overall_avg_mshr_miss_latency::total 178583.569405                       # average overall mshr miss latency
system.cpu.icache.replacements                     45                       # number of replacements
system.cpu.itb_walker_cache.tags.pwrStateResidencyTicks::UNDEFINED 1114449525000                       # Cumulative time (in ticks) in various power states
system.cpu.itb_walker_cache.tags.tagsinuse            0                       # Cycle average of tags in use
system.cpu.itb_walker_cache.tags.total_refs            0                       # Total number of references to valid blocks.
system.cpu.itb_walker_cache.tags.sampled_refs            0                       # Sample count of references to valid blocks.
system.cpu.itb_walker_cache.tags.avg_refs          nan                       # Average number of references to valid blocks.
system.cpu.itb_walker_cache.tags.warmup_cycle            0                       # Cycle when the warmup percentage was hit.
system.cpu.itb_walker_cache.tags.tag_accesses            0                       # Number of tag accesses
system.cpu.itb_walker_cache.tags.data_accesses            0                       # Number of data accesses
system.cpu.itb_walker_cache.pwrStateResidencyTicks::UNDEFINED 1114449525000                       # Cumulative time (in ticks) in various power states
system.cpu.itb_walker_cache.blocked_cycles::no_mshrs            0                       # number of cycles access was blocked
system.cpu.itb_walker_cache.blocked_cycles::no_targets            0                       # number of cycles access was blocked
system.cpu.itb_walker_cache.blocked::no_mshrs            0                       # number of cycles access was blocked
system.cpu.itb_walker_cache.blocked::no_targets            0                       # number of cycles access was blocked
system.cpu.itb_walker_cache.avg_blocked_cycles::no_mshrs          nan                       # average number of cycles each access was blocked
system.cpu.itb_walker_cache.avg_blocked_cycles::no_targets          nan                       # average number of cycles each access was blocked
system.cpu.itb_walker_cache.replacements            0                       # number of replacements
system.l2.tags.pwrStateResidencyTicks::UNDEFINED 1114449525000                       # Cumulative time (in ticks) in various power states
system.l2.tags.tagsinuse                  2045.611469                       # Cycle average of tags in use
system.l2.tags.total_refs                     1567685                       # Total number of references to valid blocks.
system.l2.tags.sampled_refs                    518816                       # Sample count of references to valid blocks.
system.l2.tags.avg_refs                      3.021659                       # Average number of references to valid blocks.
system.l2.tags.warmup_cycle                    434500                       # Cycle when the warmup percentage was hit.
system.l2.tags.occ_blocks::writebacks        0.946540                       # Average occupied blocks per requestor
system.l2.tags.occ_blocks::cpu.inst          0.923708                       # Average occupied blocks per requestor
system.l2.tags.occ_blocks::cpu.data       2043.741221                       # Average occupied blocks per requestor
system.l2.tags.occ_percent::writebacks       0.000462                       # Average percentage of cache occupancy
system.l2.tags.occ_percent::cpu.inst         0.000451                       # Average percentage of cache occupancy
system.l2.tags.occ_percent::cpu.data         0.997921                       # Average percentage of cache occupancy
system.l2.tags.occ_percent::total            0.998834                       # Average percentage of cache occupancy
system.l2.tags.occ_task_id_blocks::1024          2048                       # Occupied blocks per task id
system.l2.tags.age_task_id_blocks_1024::0           38                       # Occupied blocks per task id
system.l2.tags.age_task_id_blocks_1024::1           39                       # Occupied blocks per task id
system.l2.tags.age_task_id_blocks_1024::3          449                       # Occupied blocks per task id
system.l2.tags.age_task_id_blocks_1024::4         1522                       # Occupied blocks per task id
system.l2.tags.occ_task_id_percent::1024            1                       # Percentage of cache occupancy per task id
system.l2.tags.tag_accesses                  13060296                       # Number of tag accesses
system.l2.tags.data_accesses                 13060296                       # Number of data accesses
system.l2.pwrStateResidencyTicks::UNDEFINED 1114449525000                       # Cumulative time (in ticks) in various power states
system.l2.WritebackDirty_hits::writebacks       657264                       # number of WritebackDirty hits
system.l2.WritebackDirty_hits::total           657264                       # number of WritebackDirty hits
system.l2.WritebackClean_hits::writebacks           45                       # number of WritebackClean hits
system.l2.WritebackClean_hits::total               45                       # number of WritebackClean hits
system.l2.UpgradeReq_hits::cpu.data            203115                       # number of UpgradeReq hits
system.l2.UpgradeReq_hits::total               203115                       # number of UpgradeReq hits
system.l2.ReadExReq_hits::cpu.data               3009                       # number of ReadExReq hits
system.l2.ReadExReq_hits::total                  3009                       # number of ReadExReq hits
system.l2.ReadSharedReq_hits::cpu.data         160973                       # number of ReadSharedReq hits
system.l2.ReadSharedReq_hits::total            160973                       # number of ReadSharedReq hits
system.l2.demand_hits::cpu.data                163982                       # number of demand (read+write) hits
system.l2.demand_hits::total                   163982                       # number of demand (read+write) hits
system.l2.overall_hits::cpu.data               163982                       # number of overall hits
system.l2.overall_hits::total                  163982                       # number of overall hits
system.l2.ReadExReq_misses::cpu.data            63434                       # number of ReadExReq misses
system.l2.ReadExReq_misses::total               63434                       # number of ReadExReq misses
system.l2.ReadCleanReq_misses::cpu.inst           353                       # number of ReadCleanReq misses
system.l2.ReadCleanReq_misses::total              353                       # number of ReadCleanReq misses
system.l2.ReadSharedReq_misses::cpu.data       454926                       # number of ReadSharedReq misses
system.l2.ReadSharedReq_misses::total          454926                       # number of ReadSharedReq misses
system.l2.demand_misses::cpu.inst                 353                       # number of demand (read+write) misses
system.l2.demand_misses::cpu.data              518360                       # number of demand (read+write) misses
system.l2.demand_misses::total                 518713                       # number of demand (read+write) misses
system.l2.overall_misses::cpu.inst                353                       # number of overall misses
system.l2.overall_misses::cpu.data             518360                       # number of overall misses
system.l2.overall_misses::total                518713                       # number of overall misses
system.l2.ReadExReq_miss_latency::cpu.data  19757375000                       # number of ReadExReq miss cycles
system.l2.ReadExReq_miss_latency::total   19757375000                       # number of ReadExReq miss cycles
system.l2.ReadCleanReq_miss_latency::cpu.inst     62508500                       # number of ReadCleanReq miss cycles
system.l2.ReadCleanReq_miss_latency::total     62508500                       # number of ReadCleanReq miss cycles
system.l2.ReadSharedReq_miss_latency::cpu.data 109490605500                       # number of ReadSharedReq miss cycles
system.l2.ReadSharedReq_miss_latency::total 109490605500                       # number of ReadSharedReq miss cycles
system.l2.demand_miss_latency::cpu.inst      62508500                       # number of demand (read+write) miss cycles
system.l2.demand_miss_latency::cpu.data  129247980500                       # number of demand (read+write) miss cycles
system.l2.demand_miss_latency::total     129310489000                       # number of demand (read+write) miss cycles
system.l2.overall_miss_latency::cpu.inst     62508500                       # number of overall miss cycles
system.l2.overall_miss_latency::cpu.data 129247980500                       # number of overall miss cycles
system.l2.overall_miss_latency::total    129310489000                       # number of overall miss cycles
system.l2.WritebackDirty_accesses::writebacks       657264                       # number of WritebackDirty accesses(hits+misses)
system.l2.WritebackDirty_accesses::total       657264                       # number of WritebackDirty accesses(hits+misses)
system.l2.WritebackClean_accesses::writebacks           45                       # number of WritebackClean accesses(hits+misses)
system.l2.WritebackClean_accesses::total           45                       # number of WritebackClean accesses(hits+misses)
system.l2.UpgradeReq_accesses::cpu.data        203115                       # number of UpgradeReq accesses(hits+misses)
system.l2.UpgradeReq_accesses::total           203115                       # number of UpgradeReq accesses(hits+misses)
system.l2.ReadExReq_accesses::cpu.data          66443                       # number of ReadExReq accesses(hits+misses)
system.l2.ReadExReq_accesses::total             66443                       # number of ReadExReq accesses(hits+misses)
system.l2.ReadCleanReq_accesses::cpu.inst          353                       # number of ReadCleanReq accesses(hits+misses)
system.l2.ReadCleanReq_accesses::total            353                       # number of ReadCleanReq accesses(hits+misses)
system.l2.ReadSharedReq_accesses::cpu.data       615899                       # number of ReadSharedReq accesses(hits+misses)
system.l2.ReadSharedReq_accesses::total        615899                       # number of ReadSharedReq accesses(hits+misses)
system.l2.demand_accesses::cpu.inst               353                       # number of demand (read+write) accesses
system.l2.demand_accesses::cpu.data            682342                       # number of demand (read+write) accesses
system.l2.demand_accesses::total               682695                       # number of demand (read+write) accesses
system.l2.overall_accesses::cpu.inst              353                       # number of overall (read+write) accesses
system.l2.overall_accesses::cpu.data           682342                       # number of overall (read+write) accesses
system.l2.overall_accesses::total              682695                       # number of overall (read+write) accesses
system.l2.ReadExReq_miss_rate::cpu.data      0.954713                       # miss rate for ReadExReq accesses
system.l2.ReadExReq_miss_rate::total         0.954713                       # miss rate for ReadExReq accesses
system.l2.ReadCleanReq_miss_rate::cpu.inst            1                       # miss rate for ReadCleanReq accesses
system.l2.ReadCleanReq_miss_rate::total             1                       # miss rate for ReadCleanReq accesses
system.l2.ReadSharedReq_miss_rate::cpu.data     0.738637                       # miss rate for ReadSharedReq accesses
system.l2.ReadSharedReq_miss_rate::total     0.738637                       # miss rate for ReadSharedReq accesses
system.l2.demand_miss_rate::cpu.inst                1                       # miss rate for demand accesses
system.l2.demand_miss_rate::cpu.data         0.759678                       # miss rate for demand accesses
system.l2.demand_miss_rate::total            0.759802                       # miss rate for demand accesses
system.l2.overall_miss_rate::cpu.inst               1                       # miss rate for overall accesses
system.l2.overall_miss_rate::cpu.data        0.759678                       # miss rate for overall accesses
system.l2.overall_miss_rate::total           0.759802                       # miss rate for overall accesses
system.l2.ReadExReq_avg_miss_latency::cpu.data 311463.489611                       # average ReadExReq miss latency
system.l2.ReadExReq_avg_miss_latency::total 311463.489611                       # average ReadExReq miss latency
system.l2.ReadCleanReq_avg_miss_latency::cpu.inst 177077.903683                       # average ReadCleanReq miss latency
system.l2.ReadCleanReq_avg_miss_latency::total 177077.903683                       # average ReadCleanReq miss latency
system.l2.ReadSharedReq_avg_miss_latency::cpu.data 240677.836615                       # average ReadSharedReq miss latency
system.l2.ReadSharedReq_avg_miss_latency::total 240677.836615                       # average ReadSharedReq miss latency
system.l2.demand_avg_miss_latency::cpu.inst 177077.903683                       # average overall miss latency
system.l2.demand_avg_miss_latency::cpu.data 249340.189251                       # average overall miss latency
system.l2.demand_avg_miss_latency::total 249291.012564                       # average overall miss latency
system.l2.overall_avg_miss_latency::cpu.inst 177077.903683                       # average overall miss latency
system.l2.overall_avg_miss_latency::cpu.data 249340.189251                       # average overall miss latency
system.l2.overall_avg_miss_latency::total 249291.012564                       # average overall miss latency
system.l2.blocked_cycles::no_mshrs                  0                       # number of cycles access was blocked
system.l2.blocked_cycles::no_targets                0                       # number of cycles access was blocked
system.l2.blocked::no_mshrs                         0                       # number of cycles access was blocked
system.l2.blocked::no_targets                       0                       # number of cycles access was blocked
system.l2.avg_blocked_cycles::no_mshrs            nan                       # average number of cycles each access was blocked
system.l2.avg_blocked_cycles::no_targets          nan                       # average number of cycles each access was blocked
system.l2.writebacks::writebacks               509004                       # number of writebacks
system.l2.writebacks::total                    509004                       # number of writebacks
system.l2.ReadExReq_mshr_misses::cpu.data        63434                       # number of ReadExReq MSHR misses
system.l2.ReadExReq_mshr_misses::total          63434                       # number of ReadExReq MSHR misses
system.l2.ReadCleanReq_mshr_misses::cpu.inst          353                       # number of ReadCleanReq MSHR misses
system.l2.ReadCleanReq_mshr_misses::total          353                       # number of ReadCleanReq MSHR misses
system.l2.ReadSharedReq_mshr_misses::cpu.data       454926                       # number of ReadSharedReq MSHR misses
system.l2.ReadSharedReq_mshr_misses::total       454926                       # number of ReadSharedReq MSHR misses
system.l2.demand_mshr_misses::cpu.inst            353                       # number of demand (read+write) MSHR misses
system.l2.demand_mshr_misses::cpu.data         518360                       # number of demand (read+write) MSHR misses
system.l2.demand_mshr_misses::total            518713                       # number of demand (read+write) MSHR misses
system.l2.overall_mshr_misses::cpu.inst           353                       # number of overall MSHR misses
system.l2.overall_mshr_misses::cpu.data        518360                       # number of overall MSHR misses
system.l2.overall_mshr_misses::total           518713                       # number of overall MSHR misses
system.l2.ReadExReq_mshr_miss_latency::cpu.data  19123035000                       # number of ReadExReq MSHR miss cycles
system.l2.ReadExReq_mshr_miss_latency::total  19123035000                       # number of ReadExReq MSHR miss cycles
system.l2.ReadCleanReq_mshr_miss_latency::cpu.inst     58978500                       # number of ReadCleanReq MSHR miss cycles
system.l2.ReadCleanReq_mshr_miss_latency::total     58978500                       # number of ReadCleanReq MSHR miss cycles
system.l2.ReadSharedReq_mshr_miss_latency::cpu.data 104941345500                       # number of ReadSharedReq MSHR miss cycles
system.l2.ReadSharedReq_mshr_miss_latency::total 104941345500                       # number of ReadSharedReq MSHR miss cycles
system.l2.demand_mshr_miss_latency::cpu.inst     58978500                       # number of demand (read+write) MSHR miss cycles
system.l2.demand_mshr_miss_latency::cpu.data 124064380500                       # number of demand (read+write) MSHR miss cycles
system.l2.demand_mshr_miss_latency::total 124123359000                       # number of demand (read+write) MSHR miss cycles
system.l2.overall_mshr_miss_latency::cpu.inst     58978500                       # number of overall MSHR miss cycles
system.l2.overall_mshr_miss_latency::cpu.data 124064380500                       # number of overall MSHR miss cycles
system.l2.overall_mshr_miss_latency::total 124123359000                       # number of overall MSHR miss cycles
system.l2.ReadExReq_mshr_miss_rate::cpu.data     0.954713                       # mshr miss rate for ReadExReq accesses
system.l2.ReadExReq_mshr_miss_rate::total     0.954713                       # mshr miss rate for ReadExReq accesses
system.l2.ReadCleanReq_mshr_miss_rate::cpu.inst            1                       # mshr miss rate for ReadCleanReq accesses
system.l2.ReadCleanReq_mshr_miss_rate::total            1                       # mshr miss rate for ReadCleanReq accesses
system.l2.ReadSharedReq_mshr_miss_rate::cpu.data     0.738637                       # mshr miss rate for ReadSharedReq accesses
system.l2.ReadSharedReq_mshr_miss_rate::total     0.738637                       # mshr miss rate for ReadSharedReq accesses
system.l2.demand_mshr_miss_rate::cpu.inst            1                       # mshr miss rate for demand accesses
system.l2.demand_mshr_miss_rate::cpu.data     0.759678                       # mshr miss rate for demand accesses
system.l2.demand_mshr_miss_rate::total       0.759802                       # mshr miss rate for demand accesses
system.l2.overall_mshr_miss_rate::cpu.inst            1                       # mshr miss rate for overall accesses
system.l2.overall_mshr_miss_rate::cpu.data     0.759678                       # mshr miss rate for overall accesses
system.l2.overall_mshr_miss_rate::total      0.759802                       # mshr miss rate for overall accesses
system.l2.ReadExReq_avg_mshr_miss_latency::cpu.data 301463.489611                       # average ReadExReq mshr miss latency
system.l2.ReadExReq_avg_mshr_miss_latency::total 301463.489611                       # average ReadExReq mshr miss latency
system.l2.ReadCleanReq_avg_mshr_miss_latency::cpu.inst 167077.903683                       # average ReadCleanReq mshr miss latency
system.l2.ReadCleanReq_avg_mshr_miss_latency::total 167077.903683                       # average ReadCleanReq mshr miss latency
system.l2.ReadSharedReq_avg_mshr_miss_latency::cpu.data 230677.836615                       # average ReadSharedReq mshr miss latency
system.l2.ReadSharedReq_avg_mshr_miss_latency::total 230677.836615                       # average ReadSharedReq mshr miss latency
system.l2.demand_avg_mshr_miss_latency::cpu.inst 167077.903683                       # average overall mshr miss latency
system.l2.demand_avg_mshr_miss_latency::cpu.data 239340.189251                       # average overall mshr miss latency
system.l2.demand_avg_mshr_miss_latency::total 239291.012564                       # average overall mshr miss latency
system.l2.overall_avg_mshr_miss_latency::cpu.inst 167077.903683                       # average overall mshr miss latency
system.l2.overall_avg_mshr_miss_latency::cpu.data 239340.189251                       # average overall mshr miss latency
system.l2.overall_avg_mshr_miss_latency::total 239291.012564                       # average overall mshr miss latency
system.l2.replacements                         516768                       # number of replacements
system.l3.tags.pwrStateResidencyTicks::UNDEFINED 1114449525000                       # Cumulative time (in ticks) in various power states
system.l3.tags.tagsinuse                 16152.473797                       # Cycle average of tags in use
system.l3.tags.total_refs                     1034754                       # Total number of references to valid blocks.
system.l3.tags.sampled_refs                    331844                       # Sample count of references to valid blocks.
system.l3.tags.avg_refs                      3.118194                       # Average number of references to valid blocks.
system.l3.tags.warmup_cycle                    418000                       # Cycle when the warmup percentage was hit.
system.l3.tags.occ_blocks::writebacks      345.154423                       # Average occupied blocks per requestor
system.l3.tags.occ_blocks::cpu.inst          6.565396                       # Average occupied blocks per requestor
system.l3.tags.occ_blocks::cpu.data      15800.753978                       # Average occupied blocks per requestor
system.l3.tags.occ_percent::writebacks       0.021067                       # Average percentage of cache occupancy
system.l3.tags.occ_percent::cpu.inst         0.000401                       # Average percentage of cache occupancy
system.l3.tags.occ_percent::cpu.data         0.964401                       # Average percentage of cache occupancy
system.l3.tags.occ_percent::total            0.985869                       # Average percentage of cache occupancy
system.l3.tags.occ_task_id_blocks::1024         16384                       # Occupied blocks per task id
system.l3.tags.age_task_id_blocks_1024::0           32                       # Occupied blocks per task id
system.l3.tags.age_task_id_blocks_1024::1           35                       # Occupied blocks per task id
system.l3.tags.age_task_id_blocks_1024::4        16317                       # Occupied blocks per task id
system.l3.tags.occ_task_id_percent::1024            1                       # Percentage of cache occupancy per task id
system.l3.tags.tag_accesses                   2402060                       # Number of tag accesses
system.l3.tags.data_accesses                  2402060                       # Number of data accesses
system.l3.pwrStateResidencyTicks::UNDEFINED 1114449525000                       # Cumulative time (in ticks) in various power states
system.l3.WritebackDirty_hits::writebacks       509004                       # number of WritebackDirty hits
system.l3.WritebackDirty_hits::total           509004                       # number of WritebackDirty hits
system.l3.ReadExReq_hits::cpu.data                691                       # number of ReadExReq hits
system.l3.ReadExReq_hits::total                   691                       # number of ReadExReq hits
system.l3.ReadSharedReq_hits::cpu.data         220664                       # number of ReadSharedReq hits
system.l3.ReadSharedReq_hits::total            220664                       # number of ReadSharedReq hits
system.l3.demand_hits::cpu.data                221355                       # number of demand (read+write) hits
system.l3.demand_hits::total                   221355                       # number of demand (read+write) hits
system.l3.overall_hits::cpu.data               221355                       # number of overall hits
system.l3.overall_hits::total                  221355                       # number of overall hits
system.l3.ReadExReq_misses::cpu.data            62743                       # number of ReadExReq misses
system.l3.ReadExReq_misses::total               62743                       # number of ReadExReq misses
system.l3.ReadSharedReq_misses::cpu.inst          353                       # number of ReadSharedReq misses
system.l3.ReadSharedReq_misses::cpu.data       234262                       # number of ReadSharedReq misses
system.l3.ReadSharedReq_misses::total          234615                       # number of ReadSharedReq misses
system.l3.demand_misses::cpu.inst                 353                       # number of demand (read+write) misses
system.l3.demand_misses::cpu.data              297005                       # number of demand (read+write) misses
system.l3.demand_misses::total                 297358                       # number of demand (read+write) misses
system.l3.overall_misses::cpu.inst                353                       # number of overall misses
system.l3.overall_misses::cpu.data             297005                       # number of overall misses
system.l3.overall_misses::total                297358                       # number of overall misses
system.l3.ReadExReq_miss_latency::cpu.data  18413859500                       # number of ReadExReq miss cycles
system.l3.ReadExReq_miss_latency::total   18413859500                       # number of ReadExReq miss cycles
system.l3.ReadSharedReq_miss_latency::cpu.inst     55095500                       # number of ReadSharedReq miss cycles
system.l3.ReadSharedReq_miss_latency::cpu.data  96296203500                       # number of ReadSharedReq miss cycles
system.l3.ReadSharedReq_miss_latency::total  96351299000                       # number of ReadSharedReq miss cycles
system.l3.demand_miss_latency::cpu.inst      55095500                       # number of demand (read+write) miss cycles
system.l3.demand_miss_latency::cpu.data  114710063000                       # number of demand (read+write) miss cycles
system.l3.demand_miss_latency::total     114765158500                       # number of demand (read+write) miss cycles
system.l3.overall_miss_latency::cpu.inst     55095500                       # number of overall miss cycles
system.l3.overall_miss_latency::cpu.data 114710063000                       # number of overall miss cycles
system.l3.overall_miss_latency::total    114765158500                       # number of overall miss cycles
system.l3.WritebackDirty_accesses::writebacks       509004                       # number of WritebackDirty accesses(hits+misses)
system.l3.WritebackDirty_accesses::total       509004                       # number of WritebackDirty accesses(hits+misses)
system.l3.ReadExReq_accesses::cpu.data          63434                       # number of ReadExReq accesses(hits+misses)
system.l3.ReadExReq_accesses::total             63434                       # number of ReadExReq accesses(hits+misses)
system.l3.ReadSharedReq_accesses::cpu.inst          353                       # number of ReadSharedReq accesses(hits+misses)
system.l3.ReadSharedReq_accesses::cpu.data       454926                       # number of ReadSharedReq accesses(hits+misses)
system.l3.ReadSharedReq_accesses::total        455279                       # number of ReadSharedReq accesses(hits+misses)
system.l3.demand_accesses::cpu.inst               353                       # number of demand (read+write) accesses
system.l3.demand_accesses::cpu.data            518360                       # number of demand (read+write) accesses
system.l3.demand_accesses::total               518713                       # number of demand (read+write) accesses
system.l3.overall_accesses::cpu.inst              353                       # number of overall (read+write) accesses
system.l3.overall_accesses::cpu.data           518360                       # number of overall (read+write) accesses
system.l3.overall_accesses::total              518713                       # number of overall (read+write) accesses
system.l3.ReadExReq_miss_rate::cpu.data      0.989107                       # miss rate for ReadExReq accesses
system.l3.ReadExReq_miss_rate::total         0.989107                       # miss rate for ReadExReq accesses
system.l3.ReadSharedReq_miss_rate::cpu.inst            1                       # miss rate for ReadSharedReq accesses
system.l3.ReadSharedReq_miss_rate::cpu.data     0.514945                       # miss rate for ReadSharedReq accesses
system.l3.ReadSharedReq_miss_rate::total     0.515321                       # miss rate for ReadSharedReq accesses
system.l3.demand_miss_rate::cpu.inst                1                       # miss rate for demand accesses
system.l3.demand_miss_rate::cpu.data         0.572971                       # miss rate for demand accesses
system.l3.demand_miss_rate::total            0.573261                       # miss rate for demand accesses
system.l3.overall_miss_rate::cpu.inst               1                       # miss rate for overall accesses
system.l3.overall_miss_rate::cpu.data        0.572971                       # miss rate for overall accesses
system.l3.overall_miss_rate::total           0.573261                       # miss rate for overall accesses
system.l3.ReadExReq_avg_miss_latency::cpu.data 293480.699042                       # average ReadExReq miss latency
system.l3.ReadExReq_avg_miss_latency::total 293480.699042                       # average ReadExReq miss latency
system.l3.ReadSharedReq_avg_miss_latency::cpu.inst 156077.903683                       # average ReadSharedReq miss latency
system.l3.ReadSharedReq_avg_miss_latency::cpu.data 411061.988287                       # average ReadSharedReq miss latency
system.l3.ReadSharedReq_avg_miss_latency::total 410678.341112                       # average ReadSharedReq miss latency
system.l3.demand_avg_miss_latency::cpu.inst 156077.903683                       # average overall miss latency
system.l3.demand_avg_miss_latency::cpu.data 386222.666285                       # average overall miss latency
system.l3.demand_avg_miss_latency::total 385949.456547                       # average overall miss latency
system.l3.overall_avg_miss_latency::cpu.inst 156077.903683                       # average overall miss latency
system.l3.overall_avg_miss_latency::cpu.data 386222.666285                       # average overall miss latency
system.l3.overall_avg_miss_latency::total 385949.456547                       # average overall miss latency
system.l3.blocked_cycles::no_mshrs                  0                       # number of cycles access was blocked
system.l3.blocked_cycles::no_targets                0                       # number of cycles access was blocked
system.l3.blocked::no_mshrs                         0                       # number of cycles access was blocked
system.l3.blocked::no_targets                       0                       # number of cycles access was blocked
system.l3.avg_blocked_cycles::no_mshrs            nan                       # average number of cycles each access was blocked
system.l3.avg_blocked_cycles::no_targets          nan                       # average number of cycles each access was blocked
system.l3.writebacks::writebacks               274464                       # number of writebacks
system.l3.writebacks::total                    274464                       # number of writebacks
system.l3.CleanEvict_mshr_misses::writebacks          354                       # number of CleanEvict MSHR misses
system.l3.CleanEvict_mshr_misses::total           354                       # number of CleanEvict MSHR misses
system.l3.ReadExReq_mshr_misses::cpu.data        62743                       # number of ReadExReq MSHR misses
system.l3.ReadExReq_mshr_misses::total          62743                       # number of ReadExReq MSHR misses
system.l3.ReadSharedReq_mshr_misses::cpu.inst          353                       # number of ReadSharedReq MSHR misses
system.l3.ReadSharedReq_mshr_misses::cpu.data       234262                       # number of ReadSharedReq MSHR misses
system.l3.ReadSharedReq_mshr_misses::total       234615                       # number of ReadSharedReq MSHR misses
system.l3.demand_mshr_misses::cpu.inst            353                       # number of demand (read+write) MSHR misses
system.l3.demand_mshr_misses::cpu.data         297005                       # number of demand (read+write) MSHR misses
system.l3.demand_mshr_misses::total            297358                       # number of demand (read+write) MSHR misses
system.l3.overall_mshr_misses::cpu.inst           353                       # number of overall MSHR misses
system.l3.overall_mshr_misses::cpu.data        297005                       # number of overall MSHR misses
system.l3.overall_mshr_misses::total           297358                       # number of overall MSHR misses
system.l3.ReadExReq_mshr_miss_latency::cpu.data  17409971500                       # number of ReadExReq MSHR miss cycles
system.l3.ReadExReq_mshr_miss_latency::total  17409971500                       # number of ReadExReq MSHR miss cycles
system.l3.ReadSharedReq_mshr_miss_latency::cpu.inst     49447500                       # number of ReadSharedReq MSHR miss cycles
system.l3.ReadSharedReq_mshr_miss_latency::cpu.data  92548011500                       # number of ReadSharedReq MSHR miss cycles
system.l3.ReadSharedReq_mshr_miss_latency::total  92597459000                       # number of ReadSharedReq MSHR miss cycles
system.l3.demand_mshr_miss_latency::cpu.inst     49447500                       # number of demand (read+write) MSHR miss cycles
system.l3.demand_mshr_miss_latency::cpu.data 109957983000                       # number of demand (read+write) MSHR miss cycles
system.l3.demand_mshr_miss_latency::total 110007430500                       # number of demand (read+write) MSHR miss cycles
system.l3.overall_mshr_miss_latency::cpu.inst     49447500                       # number of overall MSHR miss cycles
system.l3.overall_mshr_miss_latency::cpu.data 109957983000                       # number of overall MSHR miss cycles
system.l3.overall_mshr_miss_latency::total 110007430500                       # number of overall MSHR miss cycles
system.l3.CleanEvict_mshr_miss_rate::writebacks          inf                       # mshr miss rate for CleanEvict accesses
system.l3.CleanEvict_mshr_miss_rate::total          inf                       # mshr miss rate for CleanEvict accesses
system.l3.ReadExReq_mshr_miss_rate::cpu.data     0.989107                       # mshr miss rate for ReadExReq accesses
system.l3.ReadExReq_mshr_miss_rate::total     0.989107                       # mshr miss rate for ReadExReq accesses
system.l3.ReadSharedReq_mshr_miss_rate::cpu.inst            1                       # mshr miss rate for ReadSharedReq accesses
system.l3.ReadSharedReq_mshr_miss_rate::cpu.data     0.514945                       # mshr miss rate for ReadSharedReq accesses
system.l3.ReadSharedReq_mshr_miss_rate::total     0.515321                       # mshr miss rate for ReadSharedReq accesses
system.l3.demand_mshr_miss_rate::cpu.inst            1                       # mshr miss rate for demand accesses
system.l3.demand_mshr_miss_rate::cpu.data     0.572971                       # mshr miss rate for demand accesses
system.l3.demand_mshr_miss_rate::total       0.573261                       # mshr miss rate for demand accesses
system.l3.overall_mshr_miss_rate::cpu.inst            1                       # mshr miss rate for overall accesses
system.l3.overall_mshr_miss_rate::cpu.data     0.572971                       # mshr miss rate for overall accesses
system.l3.overall_mshr_miss_rate::total      0.573261                       # mshr miss rate for overall accesses
system.l3.ReadExReq_avg_mshr_miss_latency::cpu.data 277480.699042                       # average ReadExReq mshr miss latency
system.l3.ReadExReq_avg_mshr_miss_latency::total 277480.699042                       # average ReadExReq mshr miss latency
system.l3.ReadSharedReq_avg_mshr_miss_latency::cpu.inst 140077.903683                       # average ReadSharedReq mshr miss latency
system.l3.ReadSharedReq_avg_mshr_miss_latency::cpu.data 395061.988287                       # average ReadSharedReq mshr miss latency
system.l3.ReadSharedReq_avg_mshr_miss_latency::total 394678.341112                       # average ReadSharedReq mshr miss latency
system.l3.demand_avg_mshr_miss_latency::cpu.inst 140077.903683                       # average overall mshr miss latency
system.l3.demand_avg_mshr_miss_latency::cpu.data 370222.666285                       # average overall mshr miss latency
system.l3.demand_avg_mshr_miss_latency::total 369949.456547                       # average overall mshr miss latency
system.l3.overall_avg_mshr_miss_latency::cpu.inst 140077.903683                       # average overall mshr miss latency
system.l3.overall_avg_mshr_miss_latency::cpu.data 370222.666285                       # average overall mshr miss latency
system.l3.overall_avg_mshr_miss_latency::total 369949.456547                       # average overall mshr miss latency
system.l3.replacements                         315460                       # number of replacements
system.membus.snoop_filter.tot_requests        591037                       # Total number of requests made to the snoop filter.
system.membus.snoop_filter.hit_single_requests       293679                       # Number of requests hitting in the snoop filter with a single holder of the requested data.
system.membus.snoop_filter.hit_multi_requests            0                       # Number of requests hitting in the snoop filter with multiple (>1) holders of the requested data.
system.membus.snoop_filter.tot_snoops               0                       # Total number of snoops made to the snoop filter.
system.membus.snoop_filter.hit_single_snoops            0                       # Number of snoops hitting in the snoop filter with a single holder of the requested data.
system.membus.snoop_filter.hit_multi_snoops            0                       # Number of snoops hitting in the snoop filter with multiple (>1) holders of the requested data.
system.membus.pwrStateResidencyTicks::UNDEFINED 1114449525000                       # Cumulative time (in ticks) in various power states
system.membus.trans_dist::ReadResp             234615                       # Transaction distribution
system.membus.trans_dist::WritebackDirty       274464                       # Transaction distribution
system.membus.trans_dist::CleanEvict             6226                       # Transaction distribution
system.membus.trans_dist::ReadExReq             62743                       # Transaction distribution
system.membus.trans_dist::ReadExResp            62743                       # Transaction distribution
system.membus.trans_dist::ReadSharedReq        234615                       # Transaction distribution
system.membus.pkt_count_system.l3.mem_side::system.mem_ctrls.port       875406                       # Packet count per connected master and slave (bytes)
system.membus.pkt_count_system.l3.mem_side::total       875406                       # Packet count per connected master and slave (bytes)
system.membus.pkt_count::total                 875406                       # Packet count per connected master and slave (bytes)
system.membus.pkt_size_system.l3.mem_side::system.mem_ctrls.port     36596608                       # Cumulative packet size per connected master and slave (bytes)
system.membus.pkt_size_system.l3.mem_side::total     36596608                       # Cumulative packet size per connected master and slave (bytes)
system.membus.pkt_size::total                36596608                       # Cumulative packet size per connected master and slave (bytes)
system.membus.snoops                                0                       # Total snoops (count)
system.membus.snoopTraffic                          0                       # Total snoop traffic (bytes)
system.membus.snoop_fanout::samples            297358                       # Request fanout histogram
system.membus.snoop_fanout::mean                    0                       # Request fanout histogram
system.membus.snoop_fanout::stdev                   0                       # Request fanout histogram
system.membus.snoop_fanout::underflows              0      0.00%      0.00% # Request fanout histogram
system.membus.snoop_fanout::0                  297358    100.00%    100.00% # Request fanout histogram
system.membus.snoop_fanout::1                       0      0.00%    100.00% # Request fanout histogram
system.membus.snoop_fanout::overflows               0      0.00%    100.00% # Request fanout histogram
system.membus.snoop_fanout::min_value               0                       # Request fanout histogram
system.membus.snoop_fanout::max_value               0                       # Request fanout histogram
system.membus.snoop_fanout::total              297358                       # Request fanout histogram
system.membus.reqLayer2.occupancy          1688896500                       # Layer occupancy (ticks)
system.membus.reqLayer2.utilization               0.2                       # Layer utilization (%)
system.membus.respLayer1.occupancy         1486793500                       # Layer occupancy (ticks)
system.membus.respLayer1.utilization              0.1                       # Layer utilization (%)
system.tol2bus.snoop_filter.tot_requests      1567685                       # Total number of requests made to the snoop filter.
system.tol2bus.snoop_filter.hit_single_requests       884990                       # Number of requests hitting in the snoop filter with a single holder of the requested data.
system.tol2bus.snoop_filter.hit_multi_requests            0                       # Number of requests hitting in the snoop filter with multiple (>1) holders of the requested data.
system.tol2bus.snoop_filter.tot_snoops          11082                       # Total number of snoops made to the snoop filter.
system.tol2bus.snoop_filter.hit_single_snoops        11082                       # Number of snoops hitting in the snoop filter with a single holder of the requested data.
system.tol2bus.snoop_filter.hit_multi_snoops            0                       # Number of snoops hitting in the snoop filter with multiple (>1) holders of the requested data.
system.tol2bus.pwrStateResidencyTicks::UNDEFINED 1114449525000                       # Cumulative time (in ticks) in various power states
system.tol2bus.trans_dist::ReadResp            616252                       # Transaction distribution
system.tol2bus.trans_dist::WritebackDirty      1440732                       # Transaction distribution
system.tol2bus.trans_dist::WritebackClean           45                       # Transaction distribution
system.tol2bus.trans_dist::CleanEvict           73326                       # Transaction distribution
system.tol2bus.trans_dist::UpgradeReq          203115                       # Transaction distribution
system.tol2bus.trans_dist::UpgradeResp         203115                       # Transaction distribution
system.tol2bus.trans_dist::ReadExReq            66443                       # Transaction distribution
system.tol2bus.trans_dist::ReadExResp           66443                       # Transaction distribution
system.tol2bus.trans_dist::ReadCleanReq           353                       # Transaction distribution
system.tol2bus.trans_dist::ReadSharedReq       615899                       # Transaction distribution
system.tol2bus.pkt_count_system.cpu.icache.mem_side::system.l2.cpu_side          751                       # Packet count per connected master and slave (bytes)
system.tol2bus.pkt_count_system.cpu.dcache.mem_side::system.l2.cpu_side      2452744                       # Packet count per connected master and slave (bytes)
system.tol2bus.pkt_count::total               2453495                       # Packet count per connected master and slave (bytes)
system.tol2bus.pkt_size_system.cpu.icache.mem_side::system.l2.cpu_side        25472                       # Cumulative packet size per connected master and slave (bytes)
system.tol2bus.pkt_size_system.cpu.dcache.mem_side::system.l2.cpu_side     85734784                       # Cumulative packet size per connected master and slave (bytes)
system.tol2bus.pkt_size::total               85760256                       # Cumulative packet size per connected master and slave (bytes)
system.tol2bus.snoops                          832228                       # Total snoops (count)
system.tol2bus.snoopTraffic                  50141952                       # Total snoop traffic (bytes)
system.tol2bus.snoop_fanout::samples          1718038                       # Request fanout histogram
system.tol2bus.snoop_fanout::mean            0.006450                       # Request fanout histogram
system.tol2bus.snoop_fanout::stdev           0.080055                       # Request fanout histogram
system.tol2bus.snoop_fanout::underflows             0      0.00%      0.00% # Request fanout histogram
system.tol2bus.snoop_fanout::0                1706956     99.35%     99.35% # Request fanout histogram
system.tol2bus.snoop_fanout::1                  11082      0.65%    100.00% # Request fanout histogram
system.tol2bus.snoop_fanout::2                      0      0.00%    100.00% # Request fanout histogram
system.tol2bus.snoop_fanout::3                      0      0.00%    100.00% # Request fanout histogram
system.tol2bus.snoop_fanout::4                      0      0.00%    100.00% # Request fanout histogram
system.tol2bus.snoop_fanout::overflows              0      0.00%    100.00% # Request fanout histogram
system.tol2bus.snoop_fanout::min_value              0                       # Request fanout histogram
system.tol2bus.snoop_fanout::max_value              1                       # Request fanout histogram
system.tol2bus.snoop_fanout::total            1718038                       # Request fanout histogram
system.tol2bus.reqLayer0.occupancy         1441151500                       # Layer occupancy (ticks)
system.tol2bus.reqLayer0.utilization              0.1                       # Layer utilization (%)
system.tol2bus.respLayer0.occupancy            529500                       # Layer occupancy (ticks)
system.tol2bus.respLayer0.utilization             0.0                       # Layer utilization (%)
system.tol2bus.respLayer1.occupancy        1125070500                       # Layer occupancy (ticks)
system.tol2bus.respLayer1.utilization             0.1                       # Layer utilization (%)
system.tol3bus.pwrStateResidencyTicks::UNDEFINED 1114449525000                       # Cumulative time (in ticks) in various power states
system.tol3bus.trans_dist::ReadResp            455279                       # Transaction distribution
system.tol3bus.trans_dist::WritebackDirty       783468                       # Transaction distribution
system.tol3bus.trans_dist::CleanEvict           48387                       # Transaction distribution
system.tol3bus.trans_dist::ReadExReq            63434                       # Transaction distribution
system.tol3bus.trans_dist::ReadExResp           63434                       # Transaction distribution
system.tol3bus.trans_dist::ReadSharedReq       455279                       # Transaction distribution
system.tol3bus.pkt_count_system.l2.mem_side::system.l3.cpu_side      1553821                       # Packet count per connected master and slave (bytes)
system.tol3bus.pkt_size_system.l2.mem_side::system.l3.cpu_side     65773888                       # Cumulative packet size per connected master and slave (bytes)
system.tol3bus.snoops                          315460                       # Total snoops (count)
system.tol3bus.snoopTraffic                  17565696                       # Total snoop traffic (bytes)
system.tol3bus.snoop_fanout::samples          1350568                       # Request fanout histogram
system.tol3bus.snoop_fanout::mean            0.233576                       # Request fanout histogram
system.tol3bus.snoop_fanout::stdev           0.423106                       # Request fanout histogram
system.tol3bus.snoop_fanout::underflows             0      0.00%      0.00% # Request fanout histogram
system.tol3bus.snoop_fanout::0                1035108     76.64%     76.64% # Request fanout histogram
system.tol3bus.snoop_fanout::1                 315460     23.36%    100.00% # Request fanout histogram
system.tol3bus.snoop_fanout::overflows              0      0.00%    100.00% # Request fanout histogram
system.tol3bus.snoop_fanout::min_value              0                       # Request fanout histogram
system.tol3bus.snoop_fanout::max_value              1                       # Request fanout histogram
system.tol3bus.snoop_fanout::total            1350568                       # Request fanout histogram
system.tol3bus.reqLayer0.occupancy         1026558000                       # Layer occupancy (ticks)
system.tol3bus.reqLayer0.utilization              0.1                       # Layer utilization (%)
system.tol3bus.respLayer0.occupancy         778069500                       # Layer occupancy (ticks)
system.tol3bus.respLayer0.utilization             0.1                       # Layer utilization (%)

---------- End Simulation Statistics   ----------
